LAMMPS (31 Mar 2017)
units metal
atom_style atomic
boundary p p p

lattice fcc 3.5
Lattice spacing in x,y,z = 3.5 3.5 3.5
region         box2 block 0 6 0 6 0 6
create_box 1   box2
Created orthogonal box = (0 0 0) to (21 21 21)
create_atoms   1 box
Created 864 atoms

mass * 63.55

pair_style table linear 8000
pair_coeff * * morse.table morse_1 6.0
  Should only be flagged at inflection points (../pair_table.cpp:476)

timestep       0.001

velocity all create 300 3512949 rot yes dist gaussian

# dump           1 all custom  1000 funcder_1.dump id type x y z vx vy vz
thermo_style   custom step cpu etotal pe ke temp vol press pxx pyy pzz pxy pxz pyz lx ly lz xy xz yz
thermo_modify  flush yes
thermo         1000

fix 1 all npt temp 1500 1500 0.1 iso 1 1 1.0
run 100000
  update every 1 steps, delay 10 steps, check yes
Step CPU TotEng PotEng KinEng Temp Volume Press Pxx Pyy Pzz Pxy Pxz Pyz Lx Ly Lz Xy Xz Yz
0            0   -854.35662   -887.82207    33.465452          300         9261    129535.46     129666.7    129543.38    129396.29   -56.307691   -93.634449   -97.427557           21           21           21            0            0            0
Averages over the last 51 of 101 rows, steps 50000 to 100000:
TotEng PotEng KinEng Temp Volume Press Pxx Pyy Pzz Pxy Pxz Pyz Lx Ly Lz Xy Xz Yz
-357.264 -523.736 166.472 1492.33 15427.5 -497.172 -720.657 -86.5799 -684.279 -521.987 179.936 35.8308 24.8935 24.8935 24.8935 0 0 0
Loop time of 87.2436 on 1 procs for 100000 steps with 864 atoms

write_data	init.data
